!-Generator IDFEditor 1.44
!-Option SortedOrder ViewInIPunits

!-NOTE: All comments with '!-' are ignored by the IDFEditor and are generated automatically.
!-      Use '!' comments if they need to be retained when using the IDFEditor.


!-   ===========  ALL OBJECTS IN CLASS: VERSION ===========

Version,
    8.1;                     !- Version Identifier


!-   ===========  ALL OBJECTS IN CLASS: SIMULATIONCONTROL ===========

SimulationControl,
    Yes,                     !- Do Zone Sizing Calculation
    Yes,                     !- Do System Sizing Calculation
    Yes,                     !- Do Plant Sizing Calculation
    No,                      !- Run Simulation for Sizing Periods
    Yes;                     !- Run Simulation for Weather File Run Periods


!-   ===========  ALL OBJECTS IN CLASS: BUILDING ===========

Building,
    PBLC,                    !- Name
    0.0,                     !- North Axis {deg}
    City,                    !- Terrain
    0.04,                    !- Loads Convergence Tolerance Value
    0.4,                     !- Temperature Convergence Tolerance Value {deltaC}
    FullExterior,            !- Solar Distribution
    25,                      !- Maximum Number of Warmup Days
    ;                        !- Minimum Number of Warmup Days


!-   ===========  ALL OBJECTS IN CLASS: SURFACECONVECTIONALGORITHM:INSIDE ===========

SurfaceConvectionAlgorithm:Inside,
    TARP;                    !- Algorithm


!-   ===========  ALL OBJECTS IN CLASS: SURFACECONVECTIONALGORITHM:OUTSIDE ===========

SurfaceConvectionAlgorithm:Outside,
    DOE-2;                   !- Algorithm


!-   ===========  ALL OBJECTS IN CLASS: HEATBALANCEALGORITHM ===========

HeatBalanceAlgorithm,
    ConductionTransferFunction,  !- Algorithm
    200,                     !- Surface Temperature Upper Limit {C}
    0.1,                     !- Minimum Surface Convection Heat Transfer Coefficient Value {W/m2-K}
    1000;                    !- Maximum Surface Convection Heat Transfer Coefficient Value {W/m2-K}


!-   ===========  ALL OBJECTS IN CLASS: ZONEAIRHEATBALANCEALGORITHM ===========

ZoneAirHeatBalanceAlgorithm,
    AnalyticalSolution;      !- Algorithm


!-   ===========  ALL OBJECTS IN CLASS: TIMESTEP ===========

Timestep,
    4;                       !- Number of Timesteps per Hour


!-   ===========  ALL OBJECTS IN CLASS: SITE:LOCATION ===========

Site:Location,
    Philadelphia Ne Philadelphia_PA_USA Design_Conditions,  !- Name
    40.08,                   !- Latitude {deg}
    -75.02,                  !- Longitude {deg}
    -5.0,                    !- Time Zone {hr}
    30.00;                   !- Elevation {m}


!-   ===========  ALL OBJECTS IN CLASS: SIZINGPERIOD:DESIGNDAY ===========

SizingPeriod:DesignDay,
    Philadelphia Ne Philadelphia Ann Htg 99.6% Condns DB,  !- Name
    1,                       !- Month
    21,                      !- Day of Month
    WinterDesignDay,         !- Day Type
    -11.7,                   !- Maximum Dry-Bulb Temperature {C}
    0.0,                     !- Daily Dry-Bulb Temperature Range {deltaC}
    ,                        !- Dry-Bulb Temperature Range Modifier Type
    ,                        !- Dry-Bulb Temperature Range Modifier Day Schedule Name
    Wetbulb,                 !- Humidity Condition Type
    -11.7,                   !- Wetbulb or DewPoint at Maximum Dry-Bulb {C}
    ,                        !- Humidity Condition Day Schedule Name
    ,                        !- Humidity Ratio at Maximum Dry-Bulb {kgWater/kgDryAir}
    ,                        !- Enthalpy at Maximum Dry-Bulb {J/kg}
    ,                        !- Daily Wet-Bulb Temperature Range {deltaC}
    100965.,                 !- Barometric Pressure {Pa}
    4.5,                     !- Wind Speed {m/s}
    300,                     !- Wind Direction {deg}
    No,                      !- Rain Indicator
    No,                      !- Snow Indicator
    No,                      !- Daylight Saving Time Indicator
    ASHRAEClearSky,          !- Solar Model Indicator
    ,                        !- Beam Solar Day Schedule Name
    ,                        !- Diffuse Solar Day Schedule Name
    ,                        !- ASHRAE Clear Sky Optical Depth for Beam Irradiance (taub) {dimensionless}
    ,                        !- ASHRAE Clear Sky Optical Depth for Diffuse Irradiance (taud) {dimensionless}
    0.00;                    !- Sky Clearness

SizingPeriod:DesignDay,
    Philadelphia Ne Philadelphia Ann Clg .4% Condns WB=>MDB,  !- Name
    7,                       !- Month
    21,                      !- Day of Month
    SummerDesignDay,         !- Day Type
    31.6,                    !- Maximum Dry-Bulb Temperature {C}
    10.3,                    !- Daily Dry-Bulb Temperature Range {deltaC}
    ,                        !- Dry-Bulb Temperature Range Modifier Type
    ,                        !- Dry-Bulb Temperature Range Modifier Day Schedule Name
    Wetbulb,                 !- Humidity Condition Type
    26,                      !- Wetbulb or DewPoint at Maximum Dry-Bulb {C}
    ,                        !- Humidity Condition Day Schedule Name
    ,                        !- Humidity Ratio at Maximum Dry-Bulb {kgWater/kgDryAir}
    ,                        !- Enthalpy at Maximum Dry-Bulb {J/kg}
    ,                        !- Daily Wet-Bulb Temperature Range {deltaC}
    100965.,                 !- Barometric Pressure {Pa}
    4.4,                     !- Wind Speed {m/s}
    300,                     !- Wind Direction {deg}
    No,                      !- Rain Indicator
    No,                      !- Snow Indicator
    No,                      !- Daylight Saving Time Indicator
    ASHRAEClearSky,          !- Solar Model Indicator
    ,                        !- Beam Solar Day Schedule Name
    ,                        !- Diffuse Solar Day Schedule Name
    ,                        !- ASHRAE Clear Sky Optical Depth for Beam Irradiance (taub) {dimensionless}
    ,                        !- ASHRAE Clear Sky Optical Depth for Diffuse Irradiance (taud) {dimensionless}
    1.00;                    !- Sky Clearness


!-   ===========  ALL OBJECTS IN CLASS: RUNPERIOD ===========

RunPeriod,
    ,                        !- Name
    5,                       !- Begin Month
    1,                       !- Begin Day of Month
    7,                       !- End Month
    31,                      !- End Day of Month
    Sunday,                  !- Day of Week for Start Day
    No,                      !- Use Weather File Holidays and Special Days
    No,                      !- Use Weather File Daylight Saving Period
    No,                      !- Apply Weekend Holiday Rule
    Yes,                     !- Use Weather File Rain Indicators
    Yes,                     !- Use Weather File Snow Indicators
    1.0000;                  !- Number of Times Runperiod to be Repeated


!-   ===========  ALL OBJECTS IN CLASS: RUNPERIODCONTROL:SPECIALDAYS ===========

RunPeriodControl:SpecialDays,
    New Years Day,           !- Name
    January 1,               !- Start Date
    1,                       !- Duration {days}
    Holiday;                 !- Special Day Type

RunPeriodControl:SpecialDays,
    Veterans Day,            !- Name
    November 11,             !- Start Date
    1,                       !- Duration {days}
    Holiday;                 !- Special Day Type

RunPeriodControl:SpecialDays,
    Christmas,               !- Name
    December 25,             !- Start Date
    1,                       !- Duration {days}
    Holiday;                 !- Special Day Type

RunPeriodControl:SpecialDays,
    Independence Day,        !- Name
    July 4,                  !- Start Date
    1,                       !- Duration {days}
    Holiday;                 !- Special Day Type

RunPeriodControl:SpecialDays,
    MLK Day,                 !- Name
    3rd Monday in January,   !- Start Date
    1,                       !- Duration {days}
    Holiday;                 !- Special Day Type

RunPeriodControl:SpecialDays,
    Presidents Day,          !- Name
    3rd Monday in February,  !- Start Date
    1,                       !- Duration {days}
    Holiday;                 !- Special Day Type

RunPeriodControl:SpecialDays,
    Memorial Day,            !- Name
    Last Monday in May,      !- Start Date
    1,                       !- Duration {days}
    Holiday;                 !- Special Day Type

RunPeriodControl:SpecialDays,
    Labor Day,               !- Name
    1st Monday in September, !- Start Date
    1,                       !- Duration {days}
    Holiday;                 !- Special Day Type

RunPeriodControl:SpecialDays,
    Columbus Day,            !- Name
    2nd Monday in October,   !- Start Date
    1,                       !- Duration {days}
    Holiday;                 !- Special Day Type

RunPeriodControl:SpecialDays,
    Thanksgiving,            !- Name
    4th Thursday in November,!- Start Date
    1,                       !- Duration {days}
    Holiday;                 !- Special Day Type


!-   ===========  ALL OBJECTS IN CLASS: RUNPERIODCONTROL:DAYLIGHTSAVINGTIME ===========

! Daylight Saving Period in US
RunPeriodControl:DaylightSavingTime,
    2nd Sunday in March,     !- Start Date
    1st Sunday in November;  !- End Date


!-   ===========  ALL OBJECTS IN CLASS: SITE:GROUNDTEMPERATURE:BUILDINGSURFACE ===========

Site:GroundTemperature:BuildingSurface,
    19.713,                  !- January Ground Temperature {C}
    19.665,                  !- February Ground Temperature {C}
    19.706,                  !- March Ground Temperature {C}
    19.745,                  !- April Ground Temperature {C}
    20.486,                  !- May Ground Temperature {C}
    22.110,                  !- June Ground Temperature {C}
    22.459,                  !- July Ground Temperature {C}
    22.554,                  !- August Ground Temperature {C}
    22.169,                  !- September Ground Temperature {C}
    20.607,                  !- October Ground Temperature {C}
    20.047,                  !- November Ground Temperature {C}
    19.805;                  !- December Ground Temperature {C}


!-   ===========  ALL OBJECTS IN CLASS: SITE:WATERMAINSTEMPERATURE ===========

Site:WaterMainsTemperature,
    CORRELATION,             !- Calculation Method
    ,                        !- Temperature Schedule Name
    12.56,                   !- Annual Average Outdoor Air Temperature {C}
    25.20;                   !- Maximum Difference In Monthly Average Outdoor Air Temperatures {deltaC}


!-   ===========  ALL OBJECTS IN CLASS: SCHEDULETYPELIMITS ===========

ScheduleTypeLimits,
    Any Number;              !- Name

ScheduleTypeLimits,
    Fraction,                !- Name
    0.0,                     !- Lower Limit Value
    1.0,                     !- Upper Limit Value
    CONTINUOUS;              !- Numeric Type

ScheduleTypeLimits,
    Temperature,             !- Name
    -60,                     !- Lower Limit Value
    200,                     !- Upper Limit Value
    CONTINUOUS;              !- Numeric Type

ScheduleTypeLimits,
    On/Off,                  !- Name
    0,                       !- Lower Limit Value
    1,                       !- Upper Limit Value
    DISCRETE;                !- Numeric Type

ScheduleTypeLimits,
    Control Type,            !- Name
    0,                       !- Lower Limit Value
    4,                       !- Upper Limit Value
    DISCRETE;                !- Numeric Type

ScheduleTypeLimits,
    Humidity,                !- Name
    10,                      !- Lower Limit Value
    90,                      !- Upper Limit Value
    CONTINUOUS;              !- Numeric Type

ScheduleTypeLimits,
    Number;                  !- Name


!-   ===========  ALL OBJECTS IN CLASS: SCHEDULE:COMPACT ===========

Schedule:Compact,
    Office Lights Schedule,  !- Name
    Fraction,                !- Schedule Type Limits Name
    Through: 12/31,          !- Field 1
    For: Weekdays,           !- Field 2
    Until: 05:00,            !- Field 3
    0.05,                    !- Field 4
    Until: 07:00,            !- Field 5
    0.1,                     !- Field 6
    Until: 08:00,            !- Field 7
    0.3,                     !- Field 8
    Until: 17:00,            !- Field 9
    0.9,                     !- Field 10
    Until: 18:00,            !- Field 11
    0.5,                     !- Field 12
    Until: 20:00,            !- Field 13
    0.3,                     !- Field 14
    Until: 22:00,            !- Field 15
    0.2,                     !- Field 16
    Until: 23:00,            !- Field 17
    0.1,                     !- Field 18
    Until: 24:00,            !- Field 19
    0.05,                    !- Field 20
    For: SummerDesignDay,    !- Field 21
    Until: 24:00,            !- Field 22
    1.0,                     !- Field 23
    For: Saturday,           !- Field 24
    Until: 06:00,            !- Field 25
    0.05,                    !- Field 26
    Until: 08:00,            !- Field 27
    0.1,                     !- Field 28
    Until: 12:00,            !- Field 29
    0.3,                     !- Field 30
    Until: 17:00,            !- Field 31
    0.15,                    !- Field 32
    Until: 24:00,            !- Field 33
    0.05,                    !- Field 34
    For: WinterDesignDay,    !- Field 35
    Until: 24:00,            !- Field 36
    0.0,                     !- Field 37
    For: Sunday Holidays AllOtherDays,  !- Field 38
    Until: 24:00,            !- Field 39
    0.05;                    !- Field 40

Schedule:Compact,
    Office Equipment Schedule,  !- Name
    Fraction,                !- Schedule Type Limits Name
    Through: 12/31,          !- Field 1
    For: Weekdays,           !- Field 2
    Until: 08:00,            !- Field 3
    0.40,                    !- Field 4
    Until: 12:00,            !- Field 5
    0.90,                    !- Field 6
    Until: 13:00,            !- Field 7
    0.80,                    !- Field 8
    Until: 17:00,            !- Field 9
    0.90,                    !- Field 10
    Until: 18:00,            !- Field 11
    0.50,                    !- Field 12
    Until: 24:00,            !- Field 13
    0.40,                    !- Field 14
    For: SummerDesignDay,    !- Field 15
    Until: 24:00,            !- Field 16
    1.0,                     !- Field 17
    For: Saturday,           !- Field 18
    Until: 06:00,            !- Field 19
    0.30,                    !- Field 20
    Until: 08:00,            !- Field 21
    0.4,                     !- Field 22
    Until: 12:00,            !- Field 23
    0.5,                     !- Field 24
    Until: 17:00,            !- Field 25
    0.35,                    !- Field 26
    Until: 24:00,            !- Field 27
    0.30,                    !- Field 28
    For: WinterDesignDay,    !- Field 29
    Until: 24:00,            !- Field 30
    0.0,                     !- Field 31
    For: Sunday Holidays AllOtherDays,  !- Field 32
    Until: 24:00,            !- Field 33
    0.30;                    !- Field 34

Schedule:Compact,
    Office Occupancy Schedule,  !- Name
    Fraction,                !- Schedule Type Limits Name
    Through: 12/31,          !- Field 1
    For: Weekdays,           !- Field 2
    Until: 06:00,            !- Field 3
    0.0,                     !- Field 4
    Until: 07:00,            !- Field 5
    0.1,                     !- Field 6
    Until: 08:00,            !- Field 7
    0.2,                     !- Field 8
    Until: 12:00,            !- Field 9
    0.95,                    !- Field 10
    Until: 13:00,            !- Field 11
    0.5,                     !- Field 12
    Until: 17:00,            !- Field 13
    0.95,                    !- Field 14
    Until: 18:00,            !- Field 15
    0.3,                     !- Field 16
    Until: 20:00,            !- Field 17
    0.1,                     !- Field 18
    Until: 24:00,            !- Field 19
    0.05,                    !- Field 20
    For: SummerDesignDay,    !- Field 21
    Until: 06:00,            !- Field 22
    0.0,                     !- Field 23
    Until: 22:00,            !- Field 24
    1.0,                     !- Field 25
    Until: 24:00,            !- Field 26
    0.05,                    !- Field 27
    For: Saturday,           !- Field 28
    Until: 06:00,            !- Field 29
    0.0,                     !- Field 30
    Until: 08:00,            !- Field 31
    0.1,                     !- Field 32
    Until: 12:00,            !- Field 33
    0.3,                     !- Field 34
    Until: 17:00,            !- Field 35
    0.1,                     !- Field 36
    Until: 19:00,            !- Field 37
    0.0,                     !- Field 38
    Until: 24:00,            !- Field 39
    0.0,                     !- Field 40
    For: WinterDesignDay,    !- Field 41
    Until: 24:00,            !- Field 42
    0.0,                     !- Field 43
    For: Sunday Holidays AllOtherDays,  !- Field 44
    Until: 06:00,            !- Field 45
    0.0,                     !- Field 46
    Until: 18:00,            !- Field 47
    0.0,                     !- Field 48
    Until: 24:00,            !- Field 49
    0.0;                     !- Field 50

Schedule:Compact,
    Infiltration Schedule,   !- Name
    Fraction,                !- Schedule Type Limits Name
    Through: 12/31,          !- Field 1
    For: Weekdays SummerDesignDay,  !- Field 2
    Until: 06:00,            !- Field 3
    1.0,                     !- Field 4
    Until: 22:00,            !- Field 5
    0.0,                     !- Field 6
    Until: 24:00,            !- Field 7
    1.0,                     !- Field 8
    For: Saturday WinterDesignDay,  !- Field 9
    Until: 06:00,            !- Field 10
    1.0,                     !- Field 11
    Until: 18:00,            !- Field 12
    0.0,                     !- Field 13
    Until: 24:00,            !- Field 14
    1.0,                     !- Field 15
    For: Sunday Holidays AllOtherDays,  !- Field 16
    Until: 24:00,            !- Field 17
    1.0;                     !- Field 18

Schedule:Compact,
    Infiltration Half On Schedule,  !- Name
    Fraction,                !- Schedule Type Limits Name
    Through: 12/31,          !- Field 1
    For: Weekdays SummerDesignDay,  !- Field 2
    Until: 06:00,            !- Field 3
    1.0,                     !- Field 4
    Until: 22:00,            !- Field 5
    0.5,                     !- Field 6
    Until: 24:00,            !- Field 7
    1.0,                     !- Field 8
    For: Saturday WinterDesignDay,  !- Field 9
    Until: 06:00,            !- Field 10
    1.0,                     !- Field 11
    Until: 18:00,            !- Field 12
    0.5,                     !- Field 13
    Until: 24:00,            !- Field 14
    1.0,                     !- Field 15
    For: Sunday Holidays AllOtherDays,  !- Field 16
    Until: 24:00,            !- Field 17
    1.0;                     !- Field 18

Schedule:Compact,
    Infiltration Quarter On Schedule,  !- Name
    Fraction,                !- Schedule Type Limits Name
    Through: 12/31,          !- Field 1
    For: Weekdays SummerDesignDay,  !- Field 2
    Until: 06:00,            !- Field 3
    1.0,                     !- Field 4
    Until: 22:00,            !- Field 5
    0.25,                    !- Field 6
    Until: 24:00,            !- Field 7
    1.0,                     !- Field 8
    For: Saturday WinterDesignDay,  !- Field 9
    Until: 06:00,            !- Field 10
    1.0,                     !- Field 11
    Until: 18:00,            !- Field 12
    0.25,                    !- Field 13
    Until: 24:00,            !- Field 14
    1.0,                     !- Field 15
    For: Sunday Holidays AllOtherDays,  !- Field 16
    Until: 24:00,            !- Field 17
    1.0;                     !- Field 18

Schedule:Compact,
    Hours of Operation Schedule,  !- Name
    On/Off,                  !- Schedule Type Limits Name
    Through: 12/31,          !- Field 1
    For: Weekdays SummerDesignDay,  !- Field 2
    Until: 05:30,            !- Field 3
    0.0,                     !- Field 4
    Until: 24:00,            !- Field 5
    1.0,                     !- Field 6
    For: Saturday WinterDesignDay,  !- Field 7
    Until: 05:30,            !- Field 8
    0,                       !- Field 9
    Until: 24:00,            !- Field 10
    1,                       !- Field 11
    For: Sunday Holidays AllOtherDays,  !- Field 12
    Until: 06:30,            !- Field 13
    0,                       !- Field 14
    Until: 24:00,            !- Field 15
    1;                       !- Field 16

Schedule:Compact,
    Always On,               !- Name
    Fraction,                !- Schedule Type Limits Name
    Through: 12/31,          !- Field 1
    For: AllDays,            !- Field 2
    Until: 24:00,            !- Field 3
    1.0;                     !- Field 4

Schedule:Compact,
    Always Off,              !- Name
    Fraction,                !- Schedule Type Limits Name
    Through: 12/31,          !- Field 1
    For: AllDays,            !- Field 2
    Until: 24:00,            !- Field 3
    0.0;                     !- Field 4

Schedule:Compact,
    Heating Setpoint Schedule,  !- Name
    Temperature,             !- Schedule Type Limits Name
    Through: 12/31,          !- Field 1
    For: Weekdays,           !- Field 2
    Until: 05:00,            !- Field 3
    15.6,                    !- Field 4
    Until: 19:00,            !- Field 5
    21.0,                    !- Field 6
    Until: 24:00,            !- Field 7
    15.6,                    !- Field 8
    For SummerDesignDay,     !- Field 9
    Until: 24:00,            !- Field 10
    15.6,                    !- Field 11
    For: Saturday,           !- Field 12
    Until: 06:00,            !- Field 13
    15.6,                    !- Field 14
    Until: 17:00,            !- Field 15
    21.0,                    !- Field 16
    Until: 24:00,            !- Field 17
    15.6,                    !- Field 18
    For: WinterDesignDay,    !- Field 19
    Until: 24:00,            !- Field 20
    21.0,                    !- Field 21
    For: Sunday Holidays AllOtherDays,  !- Field 22
    Until: 24:00,            !- Field 23
    15.6;                    !- Field 24

Schedule:Compact,
    Cooling Setpoint Schedule,  !- Name
    Temperature,             !- Schedule Type Limits Name
    Through: 12/31,          !- Field 1
    For: Alldays,            !- Field 2
    Until: 05:30,            !- Field 3
    29.4,                    !- Field 4
    Until: 24:00,            !- Field 5
    23.3;                    !- Field 6

Schedule:Compact,
    Office Activity Schedule,!- Name
    Any Number,              !- Schedule Type Limits Name
    Through: 12/31,          !- Field 1
    For: AllDays,            !- Field 2
    Until: 24:00,            !- Field 3
    120.;                    !- Field 4

Schedule:Compact,
    Office Work Eff. Schedule,  !- Name
    Fraction,                !- Schedule Type Limits Name
    Through: 12/31,          !- Field 1
    For: AllDays,            !- Field 2
    Until: 24:00,            !- Field 3
    0.0;                     !- Field 4

Schedule:Compact,
    Office Clothing Schedule,!- Name
    Any Number,              !- Schedule Type Limits Name
    Through: 04/30,          !- Field 1
    For: AllDays,            !- Field 2
    Until: 24:00,            !- Field 3
    1.0,                     !- Field 4
    Through: 09/30,          !- Field 5
    For: AllDays,            !- Field 6
    Until: 24:00,            !- Field 7
    0.5,                     !- Field 8
    Through: 12/31,          !- Field 9
    For: AllDays,            !- Field 10
    Until: 24:00,            !- Field 11
    1.0;                     !- Field 12

Schedule:Compact,
    MinOA_MotorizedDamper_Sched,  !- Name
    Fraction,                !- Schedule Type Limits Name
    Through: 12/31,          !- Field 1
    For: Weekdays SummerDesignDay,  !- Field 2
    Until: 07:00,            !- Field 3
    0.0,                     !- Field 4
    Until: 22:00,            !- Field 5
    1.0,                     !- Field 6
    Until: 24:00,            !- Field 7
    0.0,                     !- Field 8
    For: Saturday WinterDesignDay,  !- Field 9
    Until: 07:00,            !- Field 10
    0.0,                     !- Field 11
    Until: 18:00,            !- Field 12
    1.0,                     !- Field 13
    Until: 24:00,            !- Field 14
    0.0,                     !- Field 15
    For: AllOtherDays,       !- Field 16
    Until: 24:00,            !- Field 17
    0.0;                     !- Field 18

Schedule:Compact,
    BLDG_ELEVATORS,          !- Name
    Fraction,                !- Schedule Type Limits Name
    Through: 12/31,          !- Field 1
    For: Weekdays SummerDesignDay,  !- Field 2
    Until: 08:00,            !- Field 3
    0.00,                    !- Field 4
    Until: 15:00,            !- Field 5
    0.30,                    !- Field 6
    Until: 16:00,            !- Field 7
    0.15,                    !- Field 8
    Until: 24:00,            !- Field 9
    0.00,                    !- Field 10
    For: AllOtherDays,       !- Field 11
    Until: 24:00,            !- Field 12
    0.00;                    !- Field 13

Schedule:Compact,
    BLDG_EQUIP_SCH,          !- Name
    Fraction,                !- Schedule Type Limits Name
    Through: 6/30,           !- Field 1
    For: Weekdays SummerDesignDay,  !- Field 2
    Until: 08:00,            !- Field 3
    0.35,                    !- Field 4
    Until: 17:00,            !- Field 5
    0.95,                    !- Field 6
    Until: 24:00,            !- Field 7
    0.35,                    !- Field 8
    For: AllOtherDays,       !- Field 9
    Until: 24:00,            !- Field 10
    0.35,                    !- Field 11
    Through: 9/1,            !- Field 12
    For: Weekdays SummerDesignDay,  !- Field 13
    Until: 08:00,            !- Field 14
    0.25,                    !- Field 15
    Until: 17:00,            !- Field 16
    0.5,                     !- Field 17
    Until: 24:00,            !- Field 18
    0.25,                    !- Field 19
    For: AllOtherDays,       !- Field 20
    Until: 24:00,            !- Field 21
    0.25,                    !- Field 22
    Through: 12/31,          !- Field 23
    For: Weekdays SummerDesignDay,  !- Field 24
    Until: 08:00,            !- Field 25
    0.35,                    !- Field 26
    Until: 17:00,            !- Field 27
    0.95,                    !- Field 28
    Until: 24:00,            !- Field 29
    0.35,                    !- Field 30
    For: AllOtherDays,       !- Field 31
    Until: 24:00,            !- Field 32
    0.35;                    !- Field 33

Schedule:Compact,
    BLDG_LIGHT_SCH,          !- Name
    Fraction,                !- Schedule Type Limits Name
    Through: 6/30,           !- Field 1
    For: Weekdays SummerDesignDay,  !- Field 2
    Until: 07:00,            !- Field 3
    0.1773,                  !- Field 4
    Until: 21:00,            !- Field 5
    0.9,                     !- Field 6
    Until: 24:00,            !- Field 7
    0.1773,                  !- Field 8
    For: AllOtherDays,       !- Field 9
    Until: 24:00,            !- Field 10
    0.1773,                  !- Field 11
    Through: 9/1,            !- Field 12
    For: Weekdays SummerDesignDay,  !- Field 13
    Until: 08:00,            !- Field 14
    0.1773,                  !- Field 15
    Until: 20:00,            !- Field 16
    0.5,                     !- Field 17
    Until: 24:00,            !- Field 18
    0.1773,                  !- Field 19
    For: AllOtherDays,       !- Field 20
    Until: 24:00,            !- Field 21
    0.1773,                  !- Field 22
    Through: 12/31,          !- Field 23
    For: Weekdays SummerDesignDay,  !- Field 24
    Until: 07:00,            !- Field 25
    0.1773,                  !- Field 26
    Until: 21:00,            !- Field 27
    0.9,                     !- Field 28
    Until: 24:00,            !- Field 29
    0.1773,                  !- Field 30
    For: AllOtherDays,       !- Field 31
    Until: 24:00,            !- Field 32
    0.1773;                  !- Field 33

Schedule:Compact,
    BLDG_OCC_SCH,            !- Name
    Fraction,                !- Schedule Type Limits Name
    Through: 6/30,           !- Field 1
    For: Weekdays SummerDesignDay,  !- Field 2
    Until: 08:00,            !- Field 3
    0,                       !- Field 4
    Until: 16:00,            !- Field 5
    0.4,                     !- Field 6
    Until: 21:00,            !- Field 7
    0.15,                    !- Field 8
    Until: 24:00,            !- Field 9
    0,                       !- Field 10
    For: AllOtherDays,       !- Field 11
    Until: 24:00,            !- Field 12
    0,                       !- Field 13
    Through: 9/1,            !- Field 14
    For: Weekdays SummerDesignDay,  !- Field 15
    Until: 08:00,            !- Field 16
    0,                       !- Field 17
    Until: 21:00,            !- Field 18
    0.15,                    !- Field 19
    Until: 24:00,            !- Field 20
    0,                       !- Field 21
    For: AllOtherDays,       !- Field 22
    Until: 24:00,            !- Field 23
    0,                       !- Field 24
    Through: 12/31,          !- Field 25
    For: Weekdays SummerDesignDay,  !- Field 26
    Until: 08:00,            !- Field 27
    0,                       !- Field 28
    Until: 16:00,            !- Field 29
    0.4,                     !- Field 30
    Until: 21:00,            !- Field 31
    0.15,                    !- Field 32
    Until: 24:00,            !- Field 33
    0,                       !- Field 34
    For: AllOtherDays,       !- Field 35
    Until: 24:00,            !- Field 36
    0;                       !- Field 37
